Circuit: *** SPICE deck for cell 8bit_Shifter{lay} from library ServetCelik_ELE419_Project

Ignoring BSIM parameter XL
Ignoring BSIM parameter XW
Ignoring BSIM parameter XL
Ignoring BSIM parameter XW
Direct Newton iteration for .op point succeeded.

Date: Mon Jan 15 12:41:39 2024
Total elapsed time: 0.799 seconds.

tnom = 27
temp = 27
method = modified trap
totiter = 2129
traniter = 2082
tranpoints = 1042
accept = 1042
rejected = 0
matrix size = 196
fillins = 244
solver = Normal
Thread vector: 149.2/76.4[12] 59.8/26.5[12] 19.8/14.8[5] 1.1/7.9[1]  2592/500
Matrix Compiler1: 33.45 KB object code size  10.6/6.5/[4.9]
Matrix Compiler2: 27.41 KB object code size  6.6/5.3/[1.1]

