Circuit: *** SPICE deck for cell 8bit_multiplier2{lay} from library ServetCelik_ELE419_Project

Ignoring BSIM parameter XL
Ignoring BSIM parameter XW
Ignoring BSIM parameter XL
Ignoring BSIM parameter XW
Early termination of direct N-R iteration.
Direct Newton iteration failed to find .op point.  (Use ".option noopiter" to skip.)
Starting Gmin stepping
Gmin = 10
Gmin = 1.07374
Gmin = 0.115292
Gmin = 0.0123794
Gmin = 0.00132923
Gmin = 0.000142725
Gmin = 1.5325e-005
Gmin = 1.6455e-006
Gmin = 1.76685e-007
Gmin = 1.89714e-008
Gmin = 2.03704e-009
Gmin = 2.18725e-010
Gmin = 2.34854e-011
Gmin = 2.52173e-012
Gmin = 2.70769e-013
Gmin = 0
Gmin stepping succeeded in finding the operating point.


Date: Sun Jan 14 11:53:22 2024
Total elapsed time: 4.076 seconds.

tnom = 27
temp = 27
method = modified trap
totiter = 2541
traniter = 2082
tranpoints = 1042
accept = 1042
rejected = 0
matrix size = 1894
fillins = 4604
solver = Normal
Thread vector: 1981.3/622.0[12] 439.8/131.8[12] 140.4/80.0[11] 20.3/16.9[3]  2592/500
Matrix Compiler1: 665.51 KB object code size  174.0/92.7/[96.5]
Matrix Compiler2: 334.20 KB object code size  77.1/71.4/[53.8]

